1671497727.392571s 1 https://dandiarchive.s3.amazonaws.com/zarr/eac657a9-8413-4674-8a02-b21780b3a198/0/0/0/15/11/66?versionId=MT3Dsjp434H7RdzDtLBkILmFG1nDev1E
1671497727.55544s 1 https://api.dandiarchive.org/api/zarr/eac657a9-8413-4674-8a02-b21780b3a198.zarr/0/0/0/15/11/66
